# File generated by Flopy version 3.9.3 on 07/27/2025 at 14:16:03.
BEGIN options
  auxiliary  CONCENTRATION
END options

BEGIN dimensions
  MAXBOUND  1
END dimensions

BEGIN period  1
  1 1 1 1.00000000E-03 1.00000000E+00
END period  1

