# File generated by Flopy version 3.9.3 on 07/27/2025 at 14:16:03.
BEGIN options
  SAVE_FLOWS
END options

BEGIN packages
  DIS6  flow.dis  dis
  IC6  flow.ic  ic
  NPF6  flow.npf  npf
  CHD6  flow.chd  chd_0
  WEL6  flow.wel  wel-1
  OC6  flow.oc  oc
END packages

