# File generated by Flopy version 3.9.3 on 07/27/2025 at 14:33:10.
BEGIN options
  BUDGET  FILEOUT  transport.bud
  CONCENTRATION  FILEOUT  transport.ucn
END options

BEGIN period  1
  SAVE  CONCENTRATION  ALL
  SAVE  BUDGET  LAST
  PRINT  CONCENTRATION  LAST
  PRINT  BUDGET  LAST
END period  1

