# File generated by Flopy version 3.9.3 on 07/27/2025 at 14:33:10.
BEGIN options
  SORPTION  linear
END options

BEGIN griddata
  porosity
    CONSTANT       0.10000000
  bulk_density
    CONSTANT       1.00000000
  distcoef
    CONSTANT       0.10000000
END griddata

