# File generated by Flopy version 3.9.3 on 07/27/2025 at 14:33:10.
BEGIN options
  SCHEME  tvd
END options

