# File generated by Flopy version 3.9.3 on 07/07/2025 at 14:55:18.
BEGIN options
END options

BEGIN dimensions
  MAXBOUND  1
END dimensions

