# File generated by Flopy version 3.9.3 on 07/28/2025 at 12:08:26.
BEGIN options
  SAVE_SPECIFIC_DISCHARGE
  SAVE_SATURATION
END options

BEGIN griddata
  icelltype
    CONSTANT  0
  k  LAYERED
    CONSTANT       0.00100000
    CONSTANT  1.00000000E-08
    CONSTANT  1.00000000E-04
    CONSTANT  5.00000000E-07
    CONSTANT  2.00000000E-04
  k33  LAYERED
    CONSTANT       0.00100000
    CONSTANT  1.00000000E-08
    CONSTANT  1.00000000E-04
    CONSTANT  5.00000000E-07
    CONSTANT  2.00000000E-04
END griddata

