# File generated by Flopy version 3.9.3 on 07/28/2025 at 12:08:26.
BEGIN options
END options

BEGIN dimensions
  MAXBOUND  150
END dimensions

BEGIN period  1
  1 1 1 1.00000000E+01
  1 1 15 5.00000000E+00
  1 2 1 1.00000000E+01
  1 2 15 5.00000000E+00
  1 3 1 1.00000000E+01
  1 3 15 5.00000000E+00
  1 4 1 1.00000000E+01
  1 4 15 5.00000000E+00
  1 5 1 1.00000000E+01
  1 5 15 5.00000000E+00
  1 6 1 1.00000000E+01
  1 6 15 5.00000000E+00
  1 7 1 1.00000000E+01
  1 7 15 5.00000000E+00
  1 8 1 1.00000000E+01
  1 8 15 5.00000000E+00
  1 9 1 1.00000000E+01
  1 9 15 5.00000000E+00
  1 10 1 1.00000000E+01
  1 10 15 5.00000000E+00
  1 11 1 1.00000000E+01
  1 11 15 5.00000000E+00
  1 12 1 1.00000000E+01
  1 12 15 5.00000000E+00
  1 13 1 1.00000000E+01
  1 13 15 5.00000000E+00
  1 14 1 1.00000000E+01
  1 14 15 5.00000000E+00
  1 15 1 1.00000000E+01
  1 15 15 5.00000000E+00
  2 1 1 9.00000000E+00
  2 1 15 5.00000000E+00
  2 2 1 9.00000000E+00
  2 2 15 5.00000000E+00
  2 3 1 9.00000000E+00
  2 3 15 5.00000000E+00
  2 4 1 9.00000000E+00
  2 4 15 5.00000000E+00
  2 5 1 9.00000000E+00
  2 5 15 5.00000000E+00
  2 6 1 9.00000000E+00
  2 6 15 5.00000000E+00
  2 7 1 9.00000000E+00
  2 7 15 5.00000000E+00
  2 8 1 9.00000000E+00
  2 8 15 5.00000000E+00
  2 9 1 9.00000000E+00
  2 9 15 5.00000000E+00
  2 10 1 9.00000000E+00
  2 10 15 5.00000000E+00
  2 11 1 9.00000000E+00
  2 11 15 5.00000000E+00
  2 12 1 9.00000000E+00
  2 12 15 5.00000000E+00
  2 13 1 9.00000000E+00
  2 13 15 5.00000000E+00
  2 14 1 9.00000000E+00
  2 14 15 5.00000000E+00
  2 15 1 9.00000000E+00
  2 15 15 5.00000000E+00
  3 1 1 8.00000000E+00
  3 1 15 5.00000000E+00
  3 2 1 8.00000000E+00
  3 2 15 5.00000000E+00
  3 3 1 8.00000000E+00
  3 3 15 5.00000000E+00
  3 4 1 8.00000000E+00
  3 4 15 5.00000000E+00
  3 5 1 8.00000000E+00
  3 5 15 5.00000000E+00
  3 6 1 8.00000000E+00
  3 6 15 5.00000000E+00
  3 7 1 8.00000000E+00
  3 7 15 5.00000000E+00
  3 8 1 8.00000000E+00
  3 8 15 5.00000000E+00
  3 9 1 8.00000000E+00
  3 9 15 5.00000000E+00
  3 10 1 8.00000000E+00
  3 10 15 5.00000000E+00
  3 11 1 8.00000000E+00
  3 11 15 5.00000000E+00
  3 12 1 8.00000000E+00
  3 12 15 5.00000000E+00
  3 13 1 8.00000000E+00
  3 13 15 5.00000000E+00
  3 14 1 8.00000000E+00
  3 14 15 5.00000000E+00
  3 15 1 8.00000000E+00
  3 15 15 5.00000000E+00
  4 1 1 7.00000000E+00
  4 1 15 5.00000000E+00
  4 2 1 7.00000000E+00
  4 2 15 5.00000000E+00
  4 3 1 7.00000000E+00
  4 3 15 5.00000000E+00
  4 4 1 7.00000000E+00
  4 4 15 5.00000000E+00
  4 5 1 7.00000000E+00
  4 5 15 5.00000000E+00
  4 6 1 7.00000000E+00
  4 6 15 5.00000000E+00
  4 7 1 7.00000000E+00
  4 7 15 5.00000000E+00
  4 8 1 7.00000000E+00
  4 8 15 5.00000000E+00
  4 9 1 7.00000000E+00
  4 9 15 5.00000000E+00
  4 10 1 7.00000000E+00
  4 10 15 5.00000000E+00
  4 11 1 7.00000000E+00
  4 11 15 5.00000000E+00
  4 12 1 7.00000000E+00
  4 12 15 5.00000000E+00
  4 13 1 7.00000000E+00
  4 13 15 5.00000000E+00
  4 14 1 7.00000000E+00
  4 14 15 5.00000000E+00
  4 15 1 7.00000000E+00
  4 15 15 5.00000000E+00
  5 1 1 6.00000000E+00
  5 1 15 5.00000000E+00
  5 2 1 6.00000000E+00
  5 2 15 5.00000000E+00
  5 3 1 6.00000000E+00
  5 3 15 5.00000000E+00
  5 4 1 6.00000000E+00
  5 4 15 5.00000000E+00
  5 5 1 6.00000000E+00
  5 5 15 5.00000000E+00
  5 6 1 6.00000000E+00
  5 6 15 5.00000000E+00
  5 7 1 6.00000000E+00
  5 7 15 5.00000000E+00
  5 8 1 6.00000000E+00
  5 8 15 5.00000000E+00
  5 9 1 6.00000000E+00
  5 9 15 5.00000000E+00
  5 10 1 6.00000000E+00
  5 10 15 5.00000000E+00
  5 11 1 6.00000000E+00
  5 11 15 5.00000000E+00
  5 12 1 6.00000000E+00
  5 12 15 5.00000000E+00
  5 13 1 6.00000000E+00
  5 13 15 5.00000000E+00
  5 14 1 6.00000000E+00
  5 14 15 5.00000000E+00
  5 15 1 6.00000000E+00
  5 15 15 5.00000000E+00
END period  1

