# File generated by Flopy version 3.9.3 on 07/28/2025 at 13:36:22.
BEGIN options
END options

