# File generated by Flopy version 3.9.3 on 07/28/2025 at 13:38:55.
BEGIN options
END options

BEGIN griddata
  strt
    CONSTANT       1.00000000
END griddata

