# File generated by Flopy version 3.9.3 on 07/28/2025 at 13:38:55.
BEGIN options
  SAVE_FLOWS
END options

BEGIN packages
  DIS6  quick_start.dis  dis
  IC6  quick_start.ic  ic
  CHD6  quick_start.chd  chd_0
  NPF6  quick_start.npf  npf
  OC6  quick_start.oc  oc
END packages

