# File generated by Flopy version 3.9.3 on 07/28/2025 at 13:38:55.
BEGIN options
  BUDGET  FILEOUT  quick_start.bud
  HEAD  FILEOUT  quick_start.hds
END options

BEGIN period  1
  SAVE  HEAD  ALL
  SAVE  BUDGET  ALL
END period  1

