# File generated by Flopy version 3.9.3 on 07/28/2025 at 13:38:55.
BEGIN options
END options

BEGIN dimensions
  MAXBOUND  2
END dimensions

BEGIN period  1
  1 1 1 1.00000000E+00
  1 20 20 0.00000000E+00
END period  1

