# File generated by Flopy version 3.9.3 on 07/28/2025 at 11:49:33.
BEGIN options
END options

BEGIN griddata
  strt
    CONSTANT       1.00000000
END griddata

