# File generated by Flopy version 3.9.3 on 07/28/2025 at 18:40:53.
BEGIN options
END options

BEGIN dimensions
  MAXBOUND  10
END dimensions

BEGIN period  1
  1 1 1 1.00000000E+01
  1 1 5 5.00000000E+00
  1 2 1 1.00000000E+01
  1 2 5 5.00000000E+00
  1 3 1 1.00000000E+01
  1 3 5 5.00000000E+00
  1 4 1 1.00000000E+01
  1 4 5 5.00000000E+00
  1 5 1 1.00000000E+01
  1 5 5 5.00000000E+00
END period  1

