# File generated by Flopy version 3.9.3 on 07/28/2025 at 18:40:53.
BEGIN options
END options

