# File generated by Flopy version 3.9.3 on 07/28/2025 at 12:07:30.
BEGIN options
END options

