# File generated by Flopy version 3.9.3 on 07/28/2025 at 13:37:29.
BEGIN options
  SAVE_SPECIFIC_DISCHARGE
END options

BEGIN griddata
  icelltype
    CONSTANT  0
  k
    INTERNAL  FACTOR  1.0
         0.82376576       0.49542045       0.54486243       0.78396227       0.09030223       0.64847058       0.09027687       0.45573147       0.45172813       0.40082175       0.21581741       0.41541418       0.52413276       0.28054217       0.06631736       0.96292966       0.15006358       0.63222287       0.12393863       0.25769359       0.74359369       0.48925315       0.69154448       0.39541706       0.82789998       0.17939097       0.92863121       0.50564091       0.26336869       0.83779740
         0.12927085       0.56382325       0.22321806       0.61829807       0.10002505       0.22931935       0.15315093       0.51909960       0.27410072       0.22697463       0.14530833       0.90196835       0.19538571       0.50072369       0.14460796       0.13654852       0.30898581       0.64336074       0.66487412       0.86165649       0.43442666       0.18947765       0.87072474       0.20511925       0.21846178       0.24380209       0.91877559       0.91849923       0.20731874       0.85240889
         0.57663890       0.58416228       0.34941296       0.34345498       0.39492130       0.70012319       0.99848208       0.51454456       0.26031617       0.93149122       0.28533203       0.58216927       0.94256240       0.14678208       0.77235601       0.64205842       0.66612211       0.40227203       0.80448594       0.97016021       0.34749114       0.52503739       0.03760532       0.14719577       0.23367618       0.10004966       0.06384735       0.02073764       0.37667984       0.23269577
         0.91905882       0.63727537       0.03498152       0.53967592       0.54449475       0.88386208       0.35571767       0.35874853       0.20931913       0.86326032       0.69977911       0.55571191       0.11149366       0.98196036       0.49859325       0.92712854       0.80180726       0.77848600       0.13794201       0.00166498       0.45553904       0.96544095       0.97871497       0.19093933       0.36855697       0.87591804       0.15775066       0.42581443       0.03137563       0.58792214
         0.07511942       0.46414816       0.83735958       0.30125709       0.61495958       0.87485729       0.17038540       0.44645236       0.85184532       0.91522170       0.47204303       0.08883075       0.05643048       0.57315609       0.77995407       0.19968728       0.86175115       0.44670542       0.92294159       0.44199636       0.97327160       0.15393730       0.10548502       0.10778816       0.88092367       0.23632126       0.62076507       0.75386639       0.82993495       0.91492268
         0.16358595       0.65930206       0.82818126       0.57333097       0.47370094       0.76901005       0.83881416       0.42870044       0.22789132       0.66596854       0.10000000       0.10000000       0.10000000       0.10000000       0.10000000       0.10000000       0.10000000       0.10000000       0.10000000       0.10000000       0.80560122       0.68181458       0.08620064       0.13219491       0.91617057       0.48669965       0.88161262       0.08002457       0.16069986       0.73773156
         0.94791936       0.77522120       0.57460564       0.74624217       0.39424729       0.97250947       0.36985602       0.31042530       0.63868539       0.87982125       0.10000000       0.10000000       0.10000000       0.10000000       0.10000000       0.10000000       0.10000000       0.10000000       0.10000000       0.10000000       0.62068308       0.45886764       0.87460580       0.93340445       0.69775150       0.75194164       0.18716041       0.25632862       0.21623007       0.86590439
         0.20042258       0.41786769       0.21613404       0.70661216       0.71156798       0.96992491       0.53159094       0.00121926       0.30061652       0.72586252       0.10000000       0.10000000       0.10000000       0.10000000       0.10000000       0.10000000       0.10000000       0.10000000       0.10000000       0.10000000       0.67378965       0.63752888       0.14086879       0.11871554       0.88268852       0.91895833       0.00406819       0.68711640       0.62374494       0.09306222
         0.67983703       0.79502977       0.78427434       0.81531207       0.81227504       0.29069573       0.24450994       0.12143722       0.24373813       0.43303595       0.10000000       0.10000000       0.10000000       0.10000000       0.10000000       0.10000000       0.10000000       0.10000000       0.10000000       0.10000000       0.65264513       0.31558783       0.31518250       0.46811590       0.82487617       0.68267192       0.37996141       0.35186395       0.41842756       0.32798892
         0.71319468       0.06451539       0.57956215       0.19120821       0.58471840       0.66766975       0.73578444       0.22380246       0.49553935       0.15325216       0.10000000       0.10000000       0.10000000       0.10000000       0.10000000       0.10000000       0.10000000       0.10000000       0.10000000       0.10000000       0.82019176       0.05286263       0.22256819       0.23309520       0.19524492       0.15879414       0.30852949       0.05700975       0.74000029       0.65516504
         0.81205894       0.78298814       0.40373740       0.42699715       0.16383089       0.93537762       0.14659328       0.03537165       0.97056787       0.66008518       0.10000000       0.10000000       0.10000000       0.10000000       0.10000000       0.10000000       0.10000000       0.10000000       0.10000000       0.10000000       0.48274275       0.09798126       0.96646859       0.95117269       0.78088755       0.43747117       0.60506563       0.63187066       0.97686790       0.38206492
         0.50940441       0.56440004       0.42089106       0.40894528       0.24064435       0.16000655       0.31456113       0.22717389       0.75936094       0.77983557       0.10000000       0.10000000       0.10000000       0.10000000       0.10000000       0.10000000       0.10000000       0.10000000       0.10000000       0.10000000       0.81321210       0.66981767       0.37939706       0.66749788       0.97070181       0.07219187       0.12340571       0.22774890       0.93139574       0.15291154
         0.42354057       0.16505067       0.59424634       0.69305235       0.17008239       0.94673963       0.40645949       0.35357203       0.60741194       0.04549913       0.10000000       0.10000000       0.10000000       0.10000000       0.10000000       0.10000000       0.10000000       0.10000000       0.10000000       0.10000000       0.67463729       0.69762150       0.15141568       0.45178816       0.25514779       0.14253802       0.11302197       0.35846950       0.52950855       0.42973878
         0.41542442       0.88238647       0.71539096       0.06257936       0.57124711       0.81015198       0.24367407       0.20398966       0.82456134       0.37098282       0.10000000       0.10000000       0.10000000       0.10000000       0.10000000       0.10000000       0.10000000       0.10000000       0.10000000       0.10000000       0.51172439       0.82184349       0.98959288       0.68190012       0.84891933       0.31548724       0.12652870       0.99669769       0.84942915       0.95049297
         0.34019237       0.49021648       0.67420200       0.65925042       0.87117058       0.84051204       0.19434097       0.29204472       0.74473913       0.15578012       0.10000000       0.10000000       0.10000000       0.10000000       0.10000000       0.10000000       0.10000000       0.10000000       0.10000000       0.10000000       0.77547339       0.68172609       0.33536219       0.86510616       0.39911067       0.21724750       0.54492851       0.19429038       0.47831628       0.89553695
         0.47054100       0.73478342       0.36038418       0.10515386       0.21862873       0.19910900       0.23395010       0.12289770       0.59573547       0.05461918       0.30461630       0.51907382       0.34410714       0.27216736       0.65869345       0.36730680       0.09163045       0.97939492       0.07704726       0.16148959       0.04625979       0.98379837       0.88902408       0.76593133       0.52317598       0.92586273       0.99307360       0.27844890       0.07075266       0.82146487
         0.47177721       0.10790517       0.60491467       0.12261358       0.21526900       0.13590097       0.81265871       0.39198713       0.36146266       0.76376020       0.45365714       0.50756838       0.69090212       0.64042561       0.57757570       0.04566287       0.74119626       0.50657447       0.19465523       0.19894923       0.15123336       0.48641247       0.11132011       0.92079815       0.77085166       0.53444264       0.98220889       0.39333223       0.87737185       0.51373506
         0.04984403       0.18887214       0.97803252       0.57353976       0.34542204       0.55399413       0.82818644       0.87088583       0.16250693       0.51998803       0.74589321       0.65979823       0.98044414       0.49256052       0.88188075       0.67196048       0.68406992       0.63406019       0.55115360       0.58046048       0.81141144       0.74026060       0.13066422       0.74547311       0.68646757       0.72504967       0.85018888       0.86142116       0.90941735       0.12981173
         0.63890378       0.90075586       0.09514139       0.05988149       0.43053384       0.20612241       0.27715916       0.07035050       0.26656956       0.34471384       0.80118665       0.14054471       0.57775974       0.82431416       0.37201242       0.94963806       0.51736106       0.80985456       0.52703177       0.25915461       0.05099268       0.17930339       0.82648659       0.97530613       0.37810681       0.83352246       0.76987616       0.23465169       0.89281763       0.78069549
         0.64380791       0.51699809       0.36425812       0.54671155       0.03656446       0.43739715       0.17977409       0.26591534       0.32872395       0.53019068       0.51684542       0.05772382       0.41842389       0.78742023       0.84634403       0.51748417       0.00932258       0.40450112       0.71962189       0.10871518       0.84831274       0.39557256       0.67118078       0.98452793       0.56561985       0.83287670       0.70613520       0.64717119       0.79686558       0.81607546
END griddata

