# File generated by Flopy version 3.9.3 on 07/28/2025 at 13:37:29.
BEGIN options
END options

BEGIN dimensions
  MAXBOUND  40
END dimensions

BEGIN period  1
  1 1 1 1.00000000E+01
  1 1 30 5.00000000E+00
  1 2 1 1.00000000E+01
  1 2 30 5.00000000E+00
  1 3 1 1.00000000E+01
  1 3 30 5.00000000E+00
  1 4 1 1.00000000E+01
  1 4 30 5.00000000E+00
  1 5 1 1.00000000E+01
  1 5 30 5.00000000E+00
  1 6 1 1.00000000E+01
  1 6 30 5.00000000E+00
  1 7 1 1.00000000E+01
  1 7 30 5.00000000E+00
  1 8 1 1.00000000E+01
  1 8 30 5.00000000E+00
  1 9 1 1.00000000E+01
  1 9 30 5.00000000E+00
  1 10 1 1.00000000E+01
  1 10 30 5.00000000E+00
  1 11 1 1.00000000E+01
  1 11 30 5.00000000E+00
  1 12 1 1.00000000E+01
  1 12 30 5.00000000E+00
  1 13 1 1.00000000E+01
  1 13 30 5.00000000E+00
  1 14 1 1.00000000E+01
  1 14 30 5.00000000E+00
  1 15 1 1.00000000E+01
  1 15 30 5.00000000E+00
  1 16 1 1.00000000E+01
  1 16 30 5.00000000E+00
  1 17 1 1.00000000E+01
  1 17 30 5.00000000E+00
  1 18 1 1.00000000E+01
  1 18 30 5.00000000E+00
  1 19 1 1.00000000E+01
  1 19 30 5.00000000E+00
  1 20 1 1.00000000E+01
  1 20 30 5.00000000E+00
END period  1

