# File generated by Flopy version 3.9.3 on 07/28/2025 at 13:37:29.
BEGIN options
  LENGTH_UNITS  meters
END options

BEGIN dimensions
  NLAY  1
  NROW  20
  NCOL  30
END dimensions

BEGIN griddata
  delr
    CONSTANT       0.50000000
  delc
    CONSTANT       0.50000000
  top
    CONSTANT       0.00000000
  botm
    CONSTANT      -1.00000000
END griddata

