# File generated by Flopy version 3.9.3 on 07/28/2025 at 13:38:22.
BEGIN options
  SAVE_FLOWS
END options

BEGIN packages
  DIS6  flow.dis  dis
  IC6  flow.ic  ic
  CHD6  flow.chd  chd_0
  NPF6  flow.npf  npf
  OC6  flow.oc  oc
  WEL6  flow.wel  wel-1
END packages

