# File generated by Flopy version 3.9.3 on 07/28/2025 at 13:38:22.
BEGIN options
  SAVE_SPECIFIC_DISCHARGE
END options

BEGIN griddata
  icelltype
    CONSTANT  0
  k
    INTERNAL  FACTOR  1.0
         0.47825125       0.34351112       0.28782856       0.16631690       0.56020268       0.79902977       0.07796732       0.72111813       0.19494919       0.16539060       0.33530282       0.72403840       0.02230898       0.54631035       0.26479733       0.72160722       0.55447184       0.04188897       0.05398074       0.99820308       0.15560716       0.54618325       0.38179542       0.79191460       0.88924755       0.75045531       0.40610487       0.16638014       0.61617339       0.71198458       0.97432391       0.61075960       0.90443871       0.52130072       0.01398565       0.79017619       0.37120516       0.23260649       0.95118238       0.46306807       0.18430991       0.27520065       0.05936859       0.95430881       0.88146692       0.14630175       0.70060391       0.34895404       0.24660233       0.67342504       0.54623339       0.11306202       0.92374067       0.82273529       0.73653412       0.60926177       0.53834717       0.75744905       0.34805583       0.32315118
         0.09995840       0.21399714       0.96613723       0.15952455       0.28343419       0.13069723       0.29339574       0.31266535       0.99941110       0.07984877       0.32485621       0.11043165       0.21426409       0.11679799       0.65648422       0.70840197       0.31861645       0.90225853       0.17112620       0.87255048       0.98048971       0.67918551       0.79268325       0.58333453       0.10578928       0.72554538       0.32721357       0.70863155       0.77469779       0.86994555       0.71695449       0.80863911       0.76424319       0.88719584       0.26937880       0.27761728       0.10549124       0.42008614       0.92660663       0.58212484       0.48993040       0.83367574       0.74312209       0.45718968       0.83813558       0.50957943       0.97944498       0.65497361       0.72655506       0.28657649       0.64649298       0.67503801       0.92958220       0.32428678       0.62104082       0.04945441       0.23182406       0.27916326       0.72095227       0.17552344
         0.06203028       0.90773732       0.13900321       0.77163191       0.44503829       0.28495260       0.13829563       0.87196141       0.51328963       0.63052494       0.39098836       0.65211262       0.31471274       0.52408741       0.07754490       0.03937102       0.49932918       0.53749823       0.61129269       0.98878745       0.01367903       0.00543310       0.16252251       0.93071185       0.85675272       0.39756874       0.62854458       0.32005272       0.13298551       0.47981118       0.03815311       0.48791213       0.79851427       0.51776336       0.01264094       0.11778283       0.95213522       0.97314437       0.06324170       0.18896618       0.15971128       0.69533383       0.83526771       0.94633042       0.21673902       0.00712259       0.09065714       0.36535173       0.87190283       0.85558810       0.75223229       0.58620930       0.91800553       0.38137808       0.62940057       0.20578251       0.31147770       0.17799121       0.01330607       0.15295992
         0.13076669       0.33336551       0.20085069       0.93032540       0.52688775       0.53960720       0.28738925       0.47722176       0.36755447       0.08290161       0.48590603       0.65827887       0.95613041       0.04938688       0.36549791       0.74429344       0.64544861       0.17035466       0.88782904       0.23986186       0.11984976       0.30618309       0.27255097       0.23132863       0.17875910       0.30527842       0.23485026       0.13106350       0.33818327       0.22635640       0.88625289       0.80163117       0.70016915       0.04130107       0.43088040       0.65118638       0.50976969       0.48640151       0.31952029       0.10235533       0.33963271       0.41329043       0.50340065       0.47511740       0.60623500       0.22004125       0.40231919       0.12306972       0.83893330       0.94751550       0.17347531       0.19737267       0.70505459       0.41388112       0.71755593       0.34604286       0.71030244       0.94814128       0.56109919       0.16243447
         0.48829783       0.73586436       0.45979858       0.83002950       0.80091908       0.75583069       0.32673950       0.94740396       0.37243178       0.20044568       0.32143881       0.54724571       0.67453323       0.32352750       0.46531336       0.34388752       0.38166600       0.10306861       0.29249728       0.66009820       0.53030170       0.63047438       0.26401463       0.22201980       0.18722236       0.87040157       0.17605115       0.15511513       0.69704124       0.93894791       0.81447907       0.54322003       0.46309967       0.18697229       0.56814202       0.04401156       0.77322784       0.44512449       0.10738223       0.37711148       0.16091252       0.22898167       0.66005928       0.04252931       0.13265434       0.43115209       0.28445274       0.18602323       0.33155802       0.25917203       0.16658338       0.61618428       0.43057804       0.22628748       0.99630035       0.74251399       0.93973082       0.58006801       0.99992428       0.68041667
         0.32396567       0.61334734       0.47665751       0.04978901       0.50777252       0.91291590       0.72119583       0.37095341       0.63496688       0.68729947       0.32513374       0.82530331       0.76626577       0.33503415       0.92469360       0.59419493       0.27765171       0.08493671       0.48433189       0.51759989       0.49800717       0.72759923       0.82760827       0.91935499       0.84754992       0.89154982       0.26227044       0.29193482       0.36421317       0.08800889       0.51952624       0.58736079       0.88471892       0.41519687       0.05001510       0.84940450       0.85150610       0.38244756       0.36400859       0.91299113       0.91386256       0.60941254       0.18455812       0.97863264       0.49189698       0.06451936       0.16707629       0.89197640       0.34591599  7.90628460E-04       0.42760283       0.91755453       0.28201488       0.69131328       0.64337324       0.65379018       0.83781591       0.69769620       0.66338507       0.91980485
         0.04955231       0.34479716       0.76940443       0.88314105       0.89140346       0.83969435       0.23144022       0.69910390       0.88174149       0.46452391       0.21112157       0.51908113       0.87644057       0.33370695       0.71558574       0.18078397       0.52773944       0.52079932       0.74394847       0.73967676       0.10000000       0.10000000       0.10000000       0.10000000       0.10000000       0.10000000       0.10000000       0.10000000       0.10000000       0.10000000       0.10000000       0.10000000       0.10000000       0.10000000       0.10000000       0.10000000       0.10000000       0.10000000       0.10000000       0.10000000       0.00227519       0.59268988       0.70840004       0.98896388       0.97205897       0.52699840       0.88682736       0.93071718       0.29897312       0.16130637       0.11282053       0.34432535       0.04154909       0.44153321       0.93073233       0.82269437       0.31756083       0.85823474       0.40238432       0.46795465
         0.82380462       0.53191769       0.78455698       0.16107632       0.05096623       0.88247720       0.52080059       0.05847526       0.29141645       0.34787132       0.82744205       0.01457349       0.18790647       0.44274954       0.38575283       0.09281662       0.35696424       0.73763897       0.02546643       0.57143277       0.10000000       0.10000000       0.10000000       0.10000000       0.10000000       0.10000000       0.10000000       0.10000000       0.10000000       0.10000000       0.10000000       0.10000000       0.10000000       0.10000000       0.10000000       0.10000000       0.10000000       0.10000000       0.10000000       0.10000000       0.44711674       0.61922825       0.60797250       0.43155213       0.65198708       0.84138410       0.48871436       0.71618226       0.55250550       0.47766213       0.52652193       0.16583520       0.97420982       0.78602956       0.73326402       0.48512114       0.60701571       0.70787208       0.24118108       0.89575988
         0.86144172       0.80158594       0.03407843       0.49293138       0.38446700       0.17915244       0.60928037       0.77627930       0.75263445       0.06323036       0.58526470       0.73650720       0.29585602       0.28614054       0.28055918       0.88954459       0.86563435       0.11471235       0.08703972       0.39759383       0.10000000       0.10000000       0.10000000       0.10000000       0.10000000       0.10000000       0.10000000       0.10000000       0.10000000       0.10000000       0.10000000       0.10000000       0.10000000       0.10000000       0.10000000       0.10000000       0.10000000       0.10000000       0.10000000       0.10000000  1.53055705E-04       0.03976181       0.08837772       0.48639936       0.05362997       0.00977536       0.16201680       0.15421493       0.47749475       0.83175831       0.11674210       0.79757015       0.11602508       0.49180802       0.79105573       0.53357991       0.37826859       0.36431033       0.75663378       0.36944457
         0.46403736       0.21798831       0.66384163       0.90429853       0.02067912       0.11138902       0.52002278       0.13313505       0.87585940       0.03454981       0.72826392       0.51549998       0.18254938       0.92107747       0.52182277       0.49959736       0.07521110       0.58703540       0.61512080       0.14205487       0.10000000       0.10000000       0.10000000       0.10000000       0.10000000       0.10000000       0.10000000       0.10000000       0.10000000       0.10000000       0.10000000       0.10000000       0.10000000       0.10000000       0.10000000       0.10000000       0.10000000       0.10000000       0.10000000       0.10000000       0.85702144       0.06847414       0.75176330       0.10220946       0.99911049       0.09587312       0.97528607       0.07706050       0.51172232       0.59875587       0.94512027       0.53602897       0.05712586       0.12337232       0.96778300       0.17048387       0.12084551       0.77534876       0.14570109       0.23619008
         0.99748771       0.62264807       0.64263962       0.32255030       0.34219099       0.64320177       0.87426741       0.48569621       0.11469533       0.00686398       0.94113091       0.82339574       0.54785727       0.70027237       0.34574669       0.65972077       0.87333810       0.71617144       0.90679135       0.54211142       0.10000000       0.10000000       0.10000000       0.10000000       0.10000000       0.10000000       0.10000000       0.10000000       0.10000000       0.10000000       0.10000000       0.10000000       0.10000000       0.10000000       0.10000000       0.10000000       0.10000000       0.10000000       0.10000000       0.10000000       0.32519934       0.47906805       0.92377171       0.59672359       0.98169229       0.07567131       0.43679481       0.13465886       0.27730292       0.72510015       0.33586029       0.53066779       0.76109209       0.50552986       0.60684819       0.63797582       0.13133840       0.49191192       0.03780213       0.31786163
         0.29967961       0.71275929       0.09774677       0.92814716       0.15006557       0.17955020       0.78759785       0.38023800       0.21965634       0.64381217       0.21884716       0.69082851       0.93720189       0.70175201       0.42780619       0.20003953       0.20033698       0.16437279       0.01024300       0.98200067       0.10000000       0.10000000       0.10000000       0.10000000       0.10000000       0.10000000       0.10000000       0.10000000       0.10000000       0.10000000       0.10000000       0.10000000       0.10000000       0.10000000       0.10000000       0.10000000       0.10000000       0.10000000       0.10000000       0.10000000       0.67785227       0.87837632       0.49247562       0.57929426       0.96241110       0.64406420       0.06072566       0.21265836       0.03420737       0.35346700       0.84213400       0.69241634       0.87664748       0.62213188       0.20991012       0.34745075       0.74132152       0.93179620       0.15974719       0.18110188
         0.88873085       0.84089791       0.15979857       0.85311057       0.51620165       0.39388913       0.91911115       0.28280534       0.05264953       0.49365819       0.11164791       0.28901459       0.35014787       0.49313814       0.32628274       0.61135026       0.51316240       0.66421455       0.72877910       0.98551247       0.10000000       0.10000000       0.10000000       0.10000000       0.10000000       0.10000000       0.10000000       0.10000000       0.10000000       0.10000000       0.10000000       0.10000000       0.10000000       0.10000000       0.10000000       0.10000000       0.10000000       0.10000000       0.10000000       0.10000000       0.16993277       0.82748592       0.18785934       0.27178016       0.83491611       0.92421052       0.09171557       0.96631632       0.05728298       0.26170600       0.01471481       0.19815767       0.51514689       0.29132880       0.80987884       0.81931473       0.81909129       0.34368409       0.09575180       0.71120658
         0.78461969       0.68312850       0.24589206       0.36087693       0.33330192       0.83556749       0.18210746       0.97561689       0.66842562       0.12583699       0.82846386       0.19193010       0.88731903       0.87897079       0.65266070       0.04736686       0.58290558       0.26965267       0.25638734       0.39001405       0.10000000       0.10000000       0.10000000       0.10000000       0.10000000       0.10000000       0.10000000       0.10000000       0.10000000       0.10000000       0.10000000       0.10000000       0.10000000       0.10000000       0.10000000       0.10000000       0.10000000       0.10000000       0.10000000       0.10000000       0.47170393       0.02579833       0.78883031       0.88082521       0.47337218       0.03409749       0.73779304       0.49174415       0.00584090       0.12324418       0.11173952       0.16624547       0.08189338       0.55117308       0.34892504       0.78919375       0.90500728       0.02629134       0.77807780       0.81913111
         0.92394590       0.22576293       0.03285415       0.88642905       0.47245722       0.35856171       0.68051680       0.67518294       0.01569053       0.55130813       0.11270723       0.11429052       0.78301528       0.91563813       0.66628484       0.90815124       0.71648978       0.67403599       0.98888415       0.00403499       0.10000000       0.10000000       0.10000000       0.10000000       0.10000000       0.10000000       0.10000000       0.10000000       0.10000000       0.10000000       0.10000000       0.10000000       0.10000000       0.10000000       0.10000000       0.10000000       0.10000000       0.10000000       0.10000000       0.10000000       0.67662558       0.36665467       0.44799157       0.20496174       0.00743607       0.81585110       0.98084015       0.43990694       0.77920945       0.80703550       0.10607295       0.09444267       0.30031780       0.20148899       0.56967113       0.09370911       0.39322977       0.58625489       0.86201430       0.16960598
         0.90380723       0.89645092       0.82244391       0.95777201       0.26454429       0.95076881       0.72607615       0.48694160       0.56640318       0.47509360       0.35307771       0.42011145       0.50292736       0.83068672       0.91574633       0.42193779       0.58073875       0.86242449       0.68594199       0.13761000       0.10000000       0.10000000       0.10000000       0.10000000       0.10000000       0.10000000       0.10000000       0.10000000       0.10000000       0.10000000       0.10000000       0.10000000       0.10000000       0.10000000       0.10000000       0.10000000       0.10000000       0.10000000       0.10000000       0.10000000       0.51648456       0.44311088       0.46097745       0.84141810       0.25647288       0.51358828       0.45057703       0.53884314       0.92150860       0.58832122       0.18627553       0.19254535       0.97610450       0.90975791       0.53336391       0.72122917       0.23472409       0.36662069       0.19647059       0.95097227
         0.93068240       0.09344399       0.43113707       0.54326878       0.01992474       0.12224167       0.12290317       0.11012333       0.58174093       0.91128283       0.22326383       0.20225219       0.97068560       0.09274341       0.06594714       0.23310440       0.35598123       0.85334666       0.42637893       0.79010167       0.10000000       0.10000000       0.10000000       0.10000000       0.10000000       0.10000000       0.10000000       0.10000000       0.10000000       0.10000000       0.10000000       0.10000000       0.10000000       0.10000000       0.10000000       0.10000000       0.10000000       0.10000000       0.10000000       0.10000000       0.13428284       0.19573354       0.92762415       0.84056818       0.73771823       0.61008672       0.88105719       0.66322403       0.26729189       0.86266049       0.62346179       0.61202495       0.61227176       0.78692795       0.23321660       0.03011732       0.68448590       0.16023544       0.61006596       0.20140095
         0.59700766       0.05329850       0.26064121       0.82112122       0.12395195       0.89972774       0.81407885       0.21165113       0.93028620       0.94385580       0.64075640       0.06579896       0.95802595       0.09800744       0.71525502       0.92903348       0.52944635       0.27027738       0.25573478       0.54214387       0.10000000       0.10000000       0.10000000       0.10000000       0.10000000       0.10000000       0.10000000       0.10000000       0.10000000       0.10000000       0.10000000       0.10000000       0.10000000       0.10000000       0.10000000       0.10000000       0.10000000       0.10000000       0.10000000       0.10000000       0.59981941       0.48813357       0.72530003       0.78350399       0.11775031       0.48127393       0.96894684       0.32171052       0.38401110       0.52317290       0.59045010       0.96557217       0.16187217       0.81519500       0.99985193       0.36787756       0.65205905       0.07641690       0.75636658       0.51403564
         0.59226445       0.42383126       0.88526087       0.46772689       0.28671003       0.36840426       0.40568794       0.83365960       0.12389821       0.32708799       0.14824760       0.48619143       0.46684093       0.71032139       0.57164719       0.34547806       0.36267341       0.53425837       0.15973440       0.70620391       0.10000000       0.10000000       0.10000000       0.10000000       0.10000000       0.10000000       0.10000000       0.10000000       0.10000000       0.10000000       0.10000000       0.10000000       0.10000000       0.10000000       0.10000000       0.10000000       0.10000000       0.10000000       0.10000000       0.10000000       0.75973170       0.12822803       0.33267050       0.14555610       0.20810574       0.88958744       0.62526151       0.42014255       0.03959902       0.44669308       0.16984553       0.59456299       0.01092662       0.56323382       0.52384940       0.23794033       0.57521626       0.23871349       0.10158305       0.95928448
         0.51306153       0.31098924       0.84151803       0.34334122       0.97284952       0.69291849       0.15206958       0.66642864       0.19542681       0.39540437       0.14522142       0.36895039       0.48183868       0.41851232       0.38323936       0.75166858       0.09743462       0.45167660       0.33912288       0.63196226       0.10000000       0.10000000       0.10000000       0.10000000       0.10000000       0.10000000       0.10000000       0.10000000       0.10000000       0.10000000       0.10000000       0.10000000       0.10000000       0.10000000       0.10000000       0.10000000       0.10000000       0.10000000       0.10000000       0.10000000       0.41997747       0.71371048       0.56939749       0.55142253       0.19127331       0.22231858       0.89096779       0.88699921       0.30124010       0.93632531       0.29731606       0.07745237       0.75635982       0.60915233       0.57208895       0.79321484       0.90338960       0.68103609       0.56944523       0.33877474
         0.97979375       0.59092280       0.56712923       0.36733843       0.30550681       0.28571474       0.87687780       0.25176891       0.74424545       0.17870885       0.20127567       0.43427766       0.82561489       0.93034788       0.97649873       0.12622177       0.39422983       0.22380973       0.08426174       0.78329284       0.10000000       0.10000000       0.10000000       0.10000000       0.10000000       0.10000000       0.10000000       0.10000000       0.10000000       0.10000000       0.10000000       0.10000000       0.10000000       0.10000000       0.10000000       0.10000000       0.10000000       0.10000000       0.10000000       0.10000000       0.49528336       0.38275972       0.51755300       0.56096576       0.76036140       0.90268195       0.59628802       0.87175640       0.00629996       0.38858993       0.82968873       0.55961321       0.29041216       0.47942179       0.08773627       0.56039789       0.37441481       0.26281667       0.58006151       0.46257912
         0.27877588       0.40074230       0.73082256       0.56939836       0.39861533       0.65048203       0.05441110       0.54023074       0.30428192       0.41478164       0.98970538       0.48948102       0.69156771       0.83713955       0.05133348       0.09696237       0.86743207       0.06108715       0.03591524       0.91373442       0.10000000       0.10000000       0.10000000       0.10000000       0.10000000       0.10000000       0.10000000       0.10000000       0.10000000       0.10000000       0.10000000       0.10000000       0.10000000       0.10000000       0.10000000       0.10000000       0.10000000       0.10000000       0.10000000       0.10000000       0.15996454       0.08262603       0.04334149       0.76778551       0.28446111       0.44799444       0.71140360       0.72290782       0.74343246       0.10946971       0.92125432       0.45004177       0.66991869       0.64001090       0.19947952       0.39011923       0.82279044       0.44676858       0.13601543       0.20377863
         0.09314399       0.61501020       0.49113223       0.87376735       0.99692784       0.12993231       0.70947496       0.59184967       0.60223608       0.46871281       0.07297245       0.94488102       0.98355726       0.37772411       0.30115834       0.02591746       0.80217057       0.27686293       0.50065553       0.77855544       0.10000000       0.10000000       0.10000000       0.10000000       0.10000000       0.10000000       0.10000000       0.10000000       0.10000000       0.10000000       0.10000000       0.10000000       0.10000000       0.10000000       0.10000000       0.10000000       0.10000000       0.10000000       0.10000000       0.10000000       0.44505451       0.78414118       0.03162425       0.80291141       0.87075381       0.51677023       0.47089163       0.04091705       0.04639696       0.23769847       0.38435092       0.16900968       0.02469791       0.17557676       0.02828343       0.71308622       0.52892934       0.20248149       0.74561892       0.95357980
         0.14254565       0.45251310       0.84522268       0.54956049       0.95043875       0.50639476       0.30260038       0.10368082       0.98378521       0.01884285       0.87746802       0.73747460       0.13219440       0.64918479       0.06420416       0.53700032       0.87496264       0.37720167       0.82265036       0.11003196       0.10000000       0.10000000       0.10000000       0.10000000       0.10000000       0.10000000       0.10000000       0.10000000       0.10000000       0.10000000       0.10000000       0.10000000       0.10000000       0.10000000       0.10000000       0.10000000       0.10000000       0.10000000       0.10000000       0.10000000       0.12602871       0.64840812       0.55080525       0.39695358       0.95176180       0.89636891       0.00714219       0.95963997       0.67201339       0.44364851       0.21210937       0.67165446       0.85802333       0.37826800       0.14777247  3.26691950E-04       0.81073630       0.55985752       0.51981312       0.86473548
         0.24003053       0.87332587       0.00738304       0.00424260       0.13316641       0.94758830       0.27894589       0.90033212       0.66070920       0.36064731       0.98503616       0.17406458       0.08135545       0.05445845       0.74855167       0.46831993       0.52688353       0.96707949       0.01921676       0.40046775       0.10000000       0.10000000       0.10000000       0.10000000       0.10000000       0.10000000       0.10000000       0.10000000       0.10000000       0.10000000       0.10000000       0.10000000       0.10000000       0.10000000       0.10000000       0.10000000       0.10000000       0.10000000       0.10000000       0.10000000       0.91957467       0.88735185       0.40964181       0.95654691       0.15043085       0.13253432       0.52834445       0.15942739       0.45304272       0.52648122       0.87049333       0.83606296       0.10823446       0.60436594       0.22332251       0.50965845       0.50180474       0.69040130       0.99274317       0.14332188
         0.22412875       0.15322336       0.17765323       0.58768133       0.12373299       0.96813904       0.17995466       0.35539402       0.06293982       0.27328442       0.14091057       0.05304424       0.01996054       0.52643843       0.72451661       0.78579368       0.33800620       0.73788509       0.83321427       0.08009020       0.10000000       0.10000000       0.10000000       0.10000000       0.10000000       0.10000000       0.10000000       0.10000000       0.10000000       0.10000000       0.10000000       0.10000000       0.10000000       0.10000000       0.10000000       0.10000000       0.10000000       0.10000000       0.10000000       0.10000000       0.81917178       0.19455980       0.65721009       0.90353364       0.50741398       0.26446070       0.17409711       0.95519942       0.28566333       0.09022119       0.29519510       0.10133291       0.25804334       0.99262613       0.65453077       0.96584368       0.62233524       0.76545057       0.86287161       0.36323102
         0.24823834       0.30813583       0.15263598       0.41582310       0.18846932       0.57007268       0.91302033       0.23195696       0.59932428       0.58972162       0.32262764       0.93007545       0.39536021       0.19259305       0.84185097       0.62080201       0.98381116       0.84746192       0.23460270       0.71129983       0.10000000       0.10000000       0.10000000       0.10000000       0.10000000       0.10000000       0.10000000       0.10000000       0.10000000       0.10000000       0.10000000       0.10000000       0.10000000       0.10000000       0.10000000       0.10000000       0.10000000       0.10000000       0.10000000       0.10000000       0.38927762       0.13394571       0.12105924       0.32137192       0.18832934       0.98985195       0.27545139       0.69086799       0.73288418       0.26841085       0.34608924       0.63014570       0.14851255       0.98687934       0.10644132       0.88366177       0.68703492       0.95584189       0.12323816       0.79228207
         0.53503786       0.31755106       0.46293363       0.09068932       0.93053183       0.93102053       0.42549665       0.52236541       0.89462688       0.17523430       0.57888394       0.95026538       0.51184995       0.47415648       0.24366028       0.83815214       0.75820394       0.36789283       0.37941071       0.58346341       0.10000000       0.10000000       0.10000000       0.10000000       0.10000000       0.10000000       0.10000000       0.10000000       0.10000000       0.10000000       0.10000000       0.10000000       0.10000000       0.10000000       0.10000000       0.10000000       0.10000000       0.10000000       0.10000000       0.10000000       0.58740147       0.80176476       0.06025346       0.58630044       0.64360588       0.25552468       0.06359298       0.51833747       0.54687173       0.99852668       0.79356319       0.17218175       0.70791414       0.96687181       0.90407313       0.36037127       0.78383612       0.23470839       0.34340606       0.64899042
         0.48448567       0.27152926       0.01480491       0.36649104       0.24066465       0.19072161       0.43632775       0.37173503       0.87946307       0.61638306       0.49347538       0.94304737       0.73918196       0.31722677       0.64693089       0.23483112       0.12194172       0.51811237       0.84858795       0.42702466       0.10000000       0.10000000       0.10000000       0.10000000       0.10000000       0.10000000       0.10000000       0.10000000       0.10000000       0.10000000       0.10000000       0.10000000       0.10000000       0.10000000       0.10000000       0.10000000       0.10000000       0.10000000       0.10000000       0.10000000       0.25153046       0.50782126       0.56549509       0.12194686       0.60097649       0.65130150       0.14482728       0.92906067       0.90302931       0.10328367       0.75362017       0.67814560       0.55349403       0.35160941       0.65432561       0.90336223       0.44555488       0.32374160       0.70513337       0.31396939