# File generated by Flopy version 3.9.3 on 07/28/2025 at 13:38:22.
BEGIN options
END options

BEGIN dimensions
  MAXBOUND  80
END dimensions

BEGIN period  1
  1 1 1 1.00000000E+01
  1 1 60 5.00000000E+00
  1 2 1 1.00000000E+01
  1 2 60 5.00000000E+00
  1 3 1 1.00000000E+01
  1 3 60 5.00000000E+00
  1 4 1 1.00000000E+01
  1 4 60 5.00000000E+00
  1 5 1 1.00000000E+01
  1 5 60 5.00000000E+00
  1 6 1 1.00000000E+01
  1 6 60 5.00000000E+00
  1 7 1 1.00000000E+01
  1 7 60 5.00000000E+00
  1 8 1 1.00000000E+01
  1 8 60 5.00000000E+00
  1 9 1 1.00000000E+01
  1 9 60 5.00000000E+00
  1 10 1 1.00000000E+01
  1 10 60 5.00000000E+00
  1 11 1 1.00000000E+01
  1 11 60 5.00000000E+00
  1 12 1 1.00000000E+01
  1 12 60 5.00000000E+00
  1 13 1 1.00000000E+01
  1 13 60 5.00000000E+00
  1 14 1 1.00000000E+01
  1 14 60 5.00000000E+00
  1 15 1 1.00000000E+01
  1 15 60 5.00000000E+00
  1 16 1 1.00000000E+01
  1 16 60 5.00000000E+00
  1 17 1 1.00000000E+01
  1 17 60 5.00000000E+00
  1 18 1 1.00000000E+01
  1 18 60 5.00000000E+00
  1 19 1 1.00000000E+01
  1 19 60 5.00000000E+00
  1 20 1 1.00000000E+01
  1 20 60 5.00000000E+00
  1 21 1 1.00000000E+01
  1 21 60 5.00000000E+00
  1 22 1 1.00000000E+01
  1 22 60 5.00000000E+00
  1 23 1 1.00000000E+01
  1 23 60 5.00000000E+00
  1 24 1 1.00000000E+01
  1 24 60 5.00000000E+00
  1 25 1 1.00000000E+01
  1 25 60 5.00000000E+00
  1 26 1 1.00000000E+01
  1 26 60 5.00000000E+00
  1 27 1 1.00000000E+01
  1 27 60 5.00000000E+00
  1 28 1 1.00000000E+01
  1 28 60 5.00000000E+00
  1 29 1 1.00000000E+01
  1 29 60 5.00000000E+00
  1 30 1 1.00000000E+01
  1 30 60 5.00000000E+00
  1 31 1 1.00000000E+01
  1 31 60 5.00000000E+00
  1 32 1 1.00000000E+01
  1 32 60 5.00000000E+00
  1 33 1 1.00000000E+01
  1 33 60 5.00000000E+00
  1 34 1 1.00000000E+01
  1 34 60 5.00000000E+00
  1 35 1 1.00000000E+01
  1 35 60 5.00000000E+00
  1 36 1 1.00000000E+01
  1 36 60 5.00000000E+00
  1 37 1 1.00000000E+01
  1 37 60 5.00000000E+00
  1 38 1 1.00000000E+01
  1 38 60 5.00000000E+00
  1 39 1 1.00000000E+01
  1 39 60 5.00000000E+00
  1 40 1 1.00000000E+01
  1 40 60 5.00000000E+00
END period  1

