# File generated by Flopy version 3.9.3 on 07/28/2025 at 13:38:22.
BEGIN options
  SAVE_FLOWS
END options

BEGIN dimensions
  MAXBOUND  1
END dimensions

BEGIN period  1
  1 21 41 -1.00000000E+00
END period  1

