# File generated by Flopy version 3.9.3 on 07/28/2025 at 13:38:22.
BEGIN options
END options

BEGIN dimensions
  NLAY  1
  NROW  40
  NCOL  60
END dimensions

BEGIN griddata
  delr
    CONSTANT       0.50000000
  delc
    CONSTANT       0.50000000
  top
    CONSTANT       0.00000000
  botm
    CONSTANT      -1.00000000
END griddata

