# File generated by Flopy version 3.9.3 on 07/07/2025 at 14:55:18.
BEGIN options
  PRINT_OPTION  summary
  CSV_INNER_OUTPUT  FILEOUT  etmodel.inner.csv
END options

BEGIN nonlinear
  OUTER_DVCLOSE  1.00000000E-09
END nonlinear

BEGIN linear
  INNER_DVCLOSE  1.00000000E-08
  inner_rclose  1.00000000E-06  strict
  LINEAR_ACCELERATION  bicgstab
END linear

