# File generated by Flopy version 3.9.3 on 07/07/2025 at 14:55:18.
BEGIN options
END options

BEGIN griddata
  iconvert
    CONSTANT  1
  ss
    CONSTANT  1.50000000E-05
  sy
    CONSTANT       0.20000000
END griddata

