# File generated by Flopy version 3.9.3 on 07/07/2025 at 14:55:18.
BEGIN options
  NEWTON  UNDER_RELAXATION
END options

BEGIN packages
  DIS6  etmodel.dis  dis
  NPF6  etmodel.npf  npf
  STO6  etmodel.sto  sto
  IC6  etmodel.ic  ic
  API6  etmodel.api  bmi-et
  OC6  etmodel.oc  oc
  OBS6  etmodel.obs  obs_0
END packages

