# File generated by Flopy version 3.9.3 on 07/07/2025 at 14:55:18.
BEGIN options
  TIME_UNITS  days
END options

BEGIN dimensions
  NPER  1
END dimensions

BEGIN perioddata
    1000.00000000  1000       1.05000000
END perioddata

