# File generated by Flopy version 3.9.3 on 07/07/2025 at 14:55:18.
BEGIN options
  MEMORY_PRINT_OPTION  all
END options

BEGIN timing
  TDIS6  etmodel.tdis
END timing

BEGIN models
  gwf6  etmodel.nam  etmodel
END models

BEGIN exchanges
END exchanges

BEGIN solutiongroup  1
  ims6  etmodel.ims  etmodel
END solutiongroup  1

