# File generated by Flopy version 3.9.3 on 07/28/2025 at 13:36:40.
BEGIN options
  LENGTH_UNITS  meters
END options

BEGIN dimensions
  NLAY  1
  NROW  10
  NCOL  15
END dimensions

BEGIN griddata
  delr
    CONSTANT       1.00000000
  delc
    CONSTANT       1.00000000
  top
    CONSTANT       0.00000000
  botm
    CONSTANT      -1.00000000
END griddata

