# File generated by Flopy version 3.9.3 on 07/28/2025 at 13:36:40.
BEGIN options
  SAVE_SPECIFIC_DISCHARGE
END options

BEGIN griddata
  icelltype
    CONSTANT  0
  k
    CONSTANT       1.00000000
END griddata

