# File generated by Flopy version 3.9.3 on 07/28/2025 at 13:36:40.
BEGIN options
  PRINT_OPTION  summary
  COMPLEXITY  simple
END options

BEGIN nonlinear
  OUTER_DVCLOSE  1.00000000E-04
  OUTER_MAXIMUM  50
  UNDER_RELAXATION  none
END nonlinear

BEGIN linear
  INNER_MAXIMUM  30
  INNER_DVCLOSE  1.00000000E-06
  LINEAR_ACCELERATION  cg
END linear

