# File generated by Flopy version 3.9.3 on 07/28/2025 at 13:36:40.
BEGIN options
END options

BEGIN dimensions
  MAXBOUND  20
END dimensions

BEGIN period  1
  1 1 1 1.00000000E+01
  1 1 15 5.00000000E+00
  1 2 1 1.00000000E+01
  1 2 15 5.00000000E+00
  1 3 1 1.00000000E+01
  1 3 15 5.00000000E+00
  1 4 1 1.00000000E+01
  1 4 15 5.00000000E+00
  1 5 1 1.00000000E+01
  1 5 15 5.00000000E+00
  1 6 1 1.00000000E+01
  1 6 15 5.00000000E+00
  1 7 1 1.00000000E+01
  1 7 15 5.00000000E+00
  1 8 1 1.00000000E+01
  1 8 15 5.00000000E+00
  1 9 1 1.00000000E+01
  1 9 15 5.00000000E+00
  1 10 1 1.00000000E+01
  1 10 15 5.00000000E+00
END period  1

