# File generated by Flopy version 3.9.3 on 07/28/2025 at 12:10:29.
BEGIN options
END options

BEGIN timing
  TDIS6  transport.tdis
END timing

BEGIN models
  gwt6  transport.nam  transport
END models

BEGIN exchanges
END exchanges

BEGIN solutiongroup  1
  ims6  transport.ims  transport
END solutiongroup  1

