# File generated by Flopy version 3.9.3 on 07/28/2025 at 12:10:29.
BEGIN options
END options

BEGIN griddata
  porosity
    CONSTANT       0.10000000
END griddata

