# File generated by Flopy version 3.9.3 on 07/28/2025 at 12:10:29.
BEGIN options
END options

BEGIN griddata
  strt
    CONSTANT       0.00000000
END griddata

