# File generated by Flopy version 3.9.3 on 07/28/2025 at 12:10:29.
BEGIN options
END options

BEGIN dimensions
  NPER  1
END dimensions

BEGIN perioddata
     120.00000000  240       1.00000000
END perioddata

