# File generated by Flopy version 3.9.3 on 07/28/2025 at 12:10:29.
BEGIN options
  XT3D_OFF
END options

BEGIN griddata
  alh
    CONSTANT       0.10000000
  ath1
    CONSTANT       0.10000000
END griddata

