# File generated by Flopy version 3.9.3 on 07/28/2025 at 13:37:56.
BEGIN options
  SAVE_SPECIFIC_DISCHARGE
END options

BEGIN griddata
  icelltype
    CONSTANT  0
  k
    INTERNAL  FACTOR  1.0
         0.12279718       0.49836698       0.87988570       0.09652664       0.19876525       0.64717288       0.01534932       0.38420066       0.15837189       0.38935102       0.69914165       0.70570035       0.98320948       0.17135109       0.75565328       0.19576315       0.96607872       0.78868481       0.02160508       0.06063991       0.92319632       0.21162484       0.49835577       0.90972661       0.81999915       0.44402749       0.28976350       0.32347042       0.94633236       0.38464023
         0.80111313       0.09783820       0.24103912       0.14432012       0.77482507       0.49253988       0.23763503       0.43137841       0.40822000       0.91626836       0.44436678       0.90299719       0.89215787       0.63286885       0.59305394       0.84591719       0.13346562       0.47263714       0.51257191       0.20849401       0.58052986       0.06137092       0.34531115       0.96065423       0.14519200       0.23874860       0.07566419       0.07958106       0.34585122       0.72268283
         0.55766192       0.31210569       0.88132614       0.57159658       0.74950515       0.15427406       0.97908695       0.32688305       0.99032784       0.13828489       0.85891478       0.48949382       0.55016433       0.20118682       0.52725576       0.88474523       0.45579239       0.98649020       0.38886475       0.87927892       0.46673203       0.97620629       0.77638226       0.33783131       0.34824669       0.30377478       0.51603184       0.40907283       0.01593836       0.04280087
         0.13997021       0.39249028       0.69126763       0.23186148       0.68780618       0.03192931       0.74179235       0.80962614       0.15175639       0.83147785       0.52230644       0.74871348       0.80494894       0.20337852       0.55490092       0.54396716       0.59820911       0.81292025       0.21503087       0.57012405       0.66449849       0.05099897       0.67762337       0.23375508       0.35693786       0.52550353       0.27364555       0.70981663       0.67985959       0.79607899
         0.79739172       0.72671503       0.84770642       0.98156727       0.61694561       0.58250185       0.66874544       0.13335450       0.64852086       0.52637320       0.58839653       0.54683036       0.88212049       0.31602132       0.88512337       0.67777297       0.14747839       0.50973902       0.45865216       0.29621193       0.78275142       0.52391058       0.14150661       0.01986254       0.52986119       0.93447493       0.14604580       0.53477965       0.88953805       0.49137318
         0.67157200       0.13091199       0.81058325       0.38773154       0.66492471       0.25511414       0.30984585       0.55545245       0.16531475       0.83173000       0.10000000       0.10000000       0.10000000       0.10000000       0.10000000       0.10000000       0.10000000       0.10000000       0.10000000       0.10000000       0.03813088       0.70078872       0.96455482       0.58154887       0.17297948       0.19446363       0.74847762       0.52500833       0.66316252       0.87890304
         0.73201205       0.85291460       0.42339563       0.52524462       0.93424831       0.43898324       0.85122179       0.61108645       0.05465446       0.51282249       0.10000000       0.10000000       0.10000000       0.10000000       0.10000000       0.10000000       0.10000000       0.10000000       0.10000000       0.10000000       0.91500656       0.91475409       0.31034547       0.98688752       0.08737939       0.06600558       0.14574969       0.71933691       0.10078243       0.30023723
         0.94522176       0.25604082       0.55678646       0.75972671       0.43726449       0.34107348       0.39273002       0.72872630       0.86798568       0.16643213       0.10000000       0.10000000       0.10000000       0.10000000       0.10000000       0.10000000       0.10000000       0.10000000       0.10000000       0.10000000       0.14520895       0.43030456       0.52761604       0.49938222       0.15952816       0.92290474       0.58281575       0.79824022       0.88859355       0.80838999
         0.85862850       0.29774184       0.31737148       0.98354652       0.43642695       0.38415432       0.79436496       0.91370322       0.51991648       0.04123714       0.10000000       0.10000000       0.10000000       0.10000000       0.10000000       0.10000000       0.10000000       0.10000000       0.10000000       0.10000000       0.20997257       0.26787559       0.74839733       0.72755313       0.04998555       0.63063130       0.41096784       0.24515429       0.83255168       0.44748912
         0.90881249       0.63568887       0.05175769       0.05828692       0.98566136       0.39913348       0.23329889       0.98496412       0.94610896       0.81169953       0.10000000       0.10000000       0.10000000       0.10000000       0.10000000       0.10000000       0.10000000       0.10000000       0.10000000       0.10000000       0.26646707       0.05121394       0.07769686       0.23725495       0.14146758       0.13996250       0.90996424       0.16784573       0.61853365       0.08792407
         0.75333736       0.18722946       0.55371519       0.88320326       0.06405253       0.05811704       0.11001755       0.83173078       0.10729504       0.48014411       0.10000000       0.10000000       0.10000000       0.10000000       0.10000000       0.10000000       0.10000000       0.10000000       0.10000000       0.10000000       0.22241999       0.39524675       0.19344593       0.48401333       0.09470916       0.40026480       0.48799737       0.83124921       0.91416154       0.49533825
         0.74299282       0.72058776       0.78976992       0.23845212       0.19554914       0.90178311       0.12636254       0.46623598       0.08750995       0.50579971       0.10000000       0.10000000       0.10000000       0.10000000       0.10000000       0.10000000       0.10000000       0.10000000       0.10000000       0.10000000       0.04669091       0.68784850       0.99764248       0.01457172       0.78459884       0.07349719       0.55273753       0.66398060       0.97242119       0.00910291
         0.34638375       0.50450103       0.17960028       0.56915622       0.06529018       0.85396899       0.08305251       0.71384636       0.89872399       0.79456003       0.10000000       0.10000000       0.10000000       0.10000000       0.10000000       0.10000000       0.10000000       0.10000000       0.10000000       0.10000000       0.22760363       0.13135889       0.97276815       0.39705846       0.60331061       0.56602839       0.78618593       0.23695413       0.35371020       0.83626178
         0.23239552       0.75431732       0.77536028       0.49116187       0.69320647       0.28863739       0.69347638       0.38717156       0.21469952       0.81065749       0.10000000       0.10000000       0.10000000       0.10000000       0.10000000       0.10000000       0.10000000       0.10000000       0.10000000       0.10000000       0.52805382       0.10250589       0.62007897       0.04414018       0.86075870       0.24071404       0.83546530       0.56246139       0.33363347       0.95796634
         0.10841210       0.49635647       0.31736511       0.71968948       0.07986269       0.29582690       0.15800799       0.96181467       0.11465057       0.92960276       0.10000000       0.10000000       0.10000000       0.10000000       0.10000000       0.10000000       0.10000000       0.10000000       0.10000000       0.10000000       0.05171655       0.43945906       0.25815214       0.67219294       0.25039588       0.72418676       0.68203710       0.99959908       0.68197656       0.00636231
         0.27499414       0.83957124       0.04152367       0.23535457       0.46920821       0.12692813       0.63533209       0.31346849       0.70495994       0.97400612       0.15971159       0.46495879       0.47144408       0.89164053       0.88910690       0.81529071       0.71332067       0.49810675       0.36445858       0.08231353       0.46181759       0.63034102       0.86482315       0.91880364       0.09368839       0.92138956       0.42430313       0.34679078       0.95054114       0.82737568
         0.08234345       0.07125474       0.36352251       0.34995293       0.99997791       0.50293881       0.10546855       0.16092760       0.23682021       0.48847446       0.21706623       0.16393956       0.67686396       0.81289670       0.19559568       0.54257884       0.39655672       0.24541493       0.03904805       0.21348738       0.24273598       0.99651885       0.63412424       0.87641793       0.09218181       0.36154936       0.29456200       0.69264783       0.10433058       0.41740502
         0.62425114       0.05268653       0.19048415       0.42249829       0.57871597       0.29402967       0.85631318       0.08705566       0.53047836       0.68371198       0.27325577       0.67292151       0.69411730       0.90994535       0.63571142       0.71488041       0.91143438       0.33258713       0.14280719       0.14505055       0.94788942       0.81903392       0.72397186       0.04663522       0.98862699       0.64251679       0.69762812       0.90014212       0.85239989       0.23942472
         0.59035301       0.98956840       0.62083287       0.41635295       0.16933503       0.83186369       0.90795495       0.22673800       0.36373669       0.65478616       0.99957588       0.02530726       0.74862349       0.53147518       0.76489427       0.57188551       0.05950395       0.53621649       0.02023249       0.27608109       0.52075648       0.57676721       0.07314492       0.80630131       0.06901389       0.61068188       0.71806486       0.37240711       0.54065011       0.59347967
         0.64151781       0.00576420       0.73902491       0.11164627       0.02545407       0.94512902       0.95274183       0.29135697       0.41901173       0.95666523       0.27399639       0.18722582       0.33273120       0.10174857       0.25048755       0.51779645       0.25961668       0.76670474       0.41777852       0.96375104       0.11250618       0.76416117       0.69027846       0.63312893       0.75748830       0.93166530       0.04368290       0.13488680       0.84037830       0.42821203
END griddata

